/*--------------------------------*- C++ -*----------------------------------*\
| =========                 |                                                 |
| \\      /  F ield         | OpenFOAM: The Open Source CFD Toolbox           |
|  \\    /   O peration     | Version:  v2112                                 |
|   \\  /    A nd           | Website:  www.openfoam.com                      |
|    \\/     M anipulation  |                                                 |
\*---------------------------------------------------------------------------*/
FoamFile
{
    version     2.0;
    format      ascii;
    class       dictionary;
    object      thermophysicalProperties;
}
// * * * * * * * * * * * * * * * * * * * * * * * * * * * * * * * * * * * * * //

// Temperature dependnt K, H and Cp constant, rho constant. 
thermoType
{
    type            heRhoThermo;
    mixture         pureMixture;
    transport       polymerK;
    thermo          hPolymer;
    equationOfState rhoPolymerEOS;
    specie          specie;
    energy          sensibleEnthalpy;
}

mixture
{
    specie
    {
	nMoles	    1;	//irrelevant
	molWeight   1;	//Value necessary but irrelevant for the calculation as there is no mixture
    }
    thermodynamics
    {
        Cp          0; //Not needed. Cp(T) tabulated.
        Hf          0; //Heat of Fusion, irrelevant as there is no mixture
    }
    transport
    {
        mu          1.4792e-02;
        Pr          116;
    }
     
    equationOfState
    {		
        b1m         0.0009978;
        b2m         7.5078e-7;
        b3m         6.9934e8;
        b4m         0.0029;
        b1s         0.0009978;
        b2s         3.3782e-7;
        b3s         9.9809e8;
        b4s         0.00012152;
        b5          362.15;			
        b6          1e-7;
    }
}

// ************************************************************************* //
